#	Name:			1e66_ligand
#	Creating user name:	suminyi
#	Creation time:		Sun Sep 30 06:48:35 2018

#	Modifying user name:	suminyi
#	Modification time:	Sun Sep 30 06:48:35 2018

@<TRIPOS>MOLECULE
1e66_ligand
   40    43     1     1     0
SMALL
MMFF94_CHARGES


@<TRIPOS>ATOM
      1 N1          5.9600   69.5810   65.3090 N.ar      1 HUX        -0.6200 
      2 N2          1.8860   69.4300   66.4690 N.pl3     1 HUX        -0.9000 
      3 C1          6.3780   70.6350   68.8450 C.ar      1 HUX         0.1770 
      4 C2          6.6700   70.2770   67.4340 C.ar      1 HUX        -0.1500 
      5 C3          5.5690   69.9500   66.6660 C.ar      1 HUX         0.3100 
      6 C4          4.9750   69.1980   64.4700 C.ar      1 HUX         0.1665 
      7 C5          5.5190   68.7840   62.9970 C.3       1 HUX         0.1435 
      8 C6          4.5270   67.8800   62.2460 C.3       1 HUX         0.1382 
      9 C7          4.2820   66.4050   62.9960 C.2       1 HUX        -0.2882 
     10 C8          3.3050   66.0890   63.8490 C.2       1 HUX        -0.2764 
     11 C9          2.3030   67.1800   64.1500 C.3       1 HUX         0.1382 
     12 C10         4.3940   63.6190   64.1310 C.3       1 HUX         0.0000 
     13 C11         2.6210   68.6020   63.7090 C.3       1 HUX         0.1435 
     14 C12         3.1710   68.5550   62.2170 C.3       1 HUX         0.0000 
     15 C13         3.6230   69.1100   64.7520 C.ar      1 HUX        -0.1435 
     16 C14         3.2280   69.5120   66.1460 C.ar      1 HUX         0.1000 
     17 C15         4.2480   69.9120   67.0430 C.ar      1 HUX         0.0000 
     18 C16         3.9130   70.3030   68.4610 C.ar      1 HUX        -0.1500 
     19 C17         4.9340   70.6300   69.2740 C.ar      1 HUX        -0.1500 
     20 C18         3.2790   64.6360   64.4660 C.3       1 HUX         0.1382 
     21 CL1         7.5600   70.9960   69.9590 Cl        1 HUX        -0.1770 
     22 H1          1.2028   69.1298   65.7590 H         1 HUX         0.4000 
     23 H2          1.5695   69.6691   67.4196 H         1 HUX         0.4000 
     24 H3          7.6775   70.2725   67.0340 H         1 HUX         0.1500 
     25 H4          6.4727   68.2474   63.1091 H         1 HUX         0.0000 
     26 H5          5.6802   69.6992   62.4084 H         1 HUX         0.0000 
     27 H6          4.8969   67.7164   61.2231 H         1 HUX         0.0000 
     28 H7          4.9969   65.6172   62.7632 H         1 HUX         0.1500 
     29 H8          2.1651   67.2019   65.2411 H         1 HUX         0.0000 
     30 H9          1.3572   66.8943   63.6665 H         1 HUX         0.0000 
     31 H10         4.1964   62.6724   64.6552 H         1 HUX         0.0000 
     32 H11         5.3658   64.0208   64.4536 H         1 HUX         0.0000 
     33 H12         4.4132   63.4401   63.0458 H         1 HUX         0.0000 
     34 H13         1.7180   69.2297   63.7321 H         1 HUX         0.0000 
     35 H14         2.4806   67.9812   61.5813 H         1 HUX         0.0000 
     36 H15         3.2697   69.5769   61.8220 H         1 HUX         0.0000 
     37 H16         2.8875   70.3199   68.8120 H         1 HUX         0.1500 
     38 H17         4.7042   70.9058   70.2968 H         1 HUX         0.1500 
     39 H18         2.3299   64.1774   64.1514 H         1 HUX         0.0000 
     40 H19         3.2826   64.7582   65.5592 H         1 HUX         0.0000 
@<TRIPOS>BOND
     1    1    5 ar   
     2    1    6 ar   
     3    6   15 ar   
     4    6    7 1    
     5    7    8 1    
     6    8   14 1    
     7    8    9 1    
     8    9   10 2    
     9   10   20 1    
    10   10   11 1    
    11   11   13 1    
    12   13   15 1    
    13   13   14 1    
    14   15   16 ar   
    15   16    2 1    
    16   16   17 ar   
    17   17   18 ar   
    18   17    5 ar   
    19    5    4 ar   
    20    4    3 ar   
    21    3   19 ar   
    22   18   19 ar   
    23   20   12 1    
    24    3   21 1    
    25    2   22 1    
    26    2   23 1    
    27    4   24 1    
    28    7   25 1    
    29    7   26 1    
    30    8   27 1    
    31    9   28 1    
    32   11   29 1    
    33   11   30 1    
    34   12   31 1    
    35   12   32 1    
    36   12   33 1    
    37   13   34 1    
    38   14   35 1    
    39   14   36 1    
    40   18   37 1    
    41   19   38 1    
    42   20   39 1    
    43   20   40 1    
@<TRIPOS>SUBSTRUCTURE
     1 HUX         1 PERM              0 ****  ****    0 ROOT 
@<TRIPOS>NORMAL
@<TRIPOS>ALT_TYPE
MMFF94_ALT_TYPE_SET 
MMFF94 7 CR 8 CR 11 CR 12 CR 13 CR 14 CR 20 CR 3 CB 4 CB 5 CB 6 CB 15 CB \
16 CB 17 CB 18 CB 19 CB 9 C=C 10 C=C 24 HC 25 HC 26 HC \
27 HC 28 HC 29 HC 30 HC 31 HC 32 HC 33 HC 34 HC 35 HC \
36 HC 37 HC 38 HC 39 HC 40 HC 22 HNCC 23 HNCC 1 NPYD \
2 NC=C 21 CL
